data_global
_cell_length_a 8.71604
_cell_length_b 17.57
_cell_length_c 21.1872
_cell_angle_alpha 90
_cell_angle_beta 90
_cell_angle_gamma 90
_symmetry_space_group_name_H-M 'P -1'
loop_
_symmetry_equiv_pos_as_xyz
  'x,y,z'
loop_
_atom_site_label
_atom_site_fract_x
_atom_site_fract_y
_atom_site_fract_z
O -1.93338e-07 0.334634 0.00301984
O -2.66716e-08 0.00130066 0.00301994
O -3.60005e-07 0.667967 0.00302013
O 0.166667 0.408848 0.0943217
O 0.166666 0.0755148 0.0943219
O 0.166666 0.742182 0.094322
Ni -3.513e-07 0.330726 0.0973418
Li -3.513e-07 0.830726 0.0973418
Li -1.84634e-07 0.497393 0.0973419
Ni -1.84634e-07 0.997393 0.0973419
Li -1.79668e-08 0.16406 0.097342
Ni -1.79668e-08 0.66406 0.097342
O 0.166666 0.252604 0.100362
O 0.166667 0.919271 0.100362
O 0.166666 0.585938 0.100362
O -9.26216e-09 0.326818 0.191664
O -3.42595e-07 0.993485 0.191664
O -1.75929e-07 0.660152 0.191664
Ni 0.166666 0.248696 0.194684
Li 0.166666 0.748696 0.194684
Li 0.166666 0.415363 0.194684
Ni 0.166666 0.915363 0.194684
Li 0.166667 0.0820299 0.194684
Ni 0.166667 0.58203 0.194684
O -1.75371e-07 0.170574 0.197704
O -8.70472e-09 0.837241 0.197704
O -3.42038e-07 0.503908 0.197704
O 0.166667 0.244788 0.289006
O 0.166666 0.911455 0.289006
O 0.166666 0.578122 0.289006
Ni -3.33333e-07 0.166666 0.292026
Li -3.33333e-07 0.666666 0.292026
Li -1.66667e-07 0.333333 0.292026
Ni -1.66667e-07 0.833333 0.292026
Li -4.45886e-33 -1.4046e-34 0.292026
Ni 1.52852e-16 0.5 0.292026
O 0.333333 0.334634 0.00301984
O 0.333333 0.00130066 0.00301994
O 0.333333 0.667967 0.00302013
O 0.5 0.408848 0.0943217
O 0.5 0.0755148 0.0943219
O 0.5 0.742182 0.094322
Ni 0.333333 0.330726 0.0973418
Li 0.333333 0.830726 0.0973418
Li 0.333333 0.497393 0.0973419
Ni 0.333333 0.997393 0.0973419
Li 0.333333 0.16406 0.097342
Ni 0.333333 0.66406 0.097342
O 0.5 0.252604 0.100362
O 0.5 0.919271 0.100362
O 0.5 0.585938 0.100362
O 0.333333 0.326818 0.191664
O 0.333333 0.993485 0.191664
O 0.333333 0.660152 0.191664
Ni 0.5 0.248696 0.194684
Li 0.5 0.748696 0.194684
Li 0.5 0.415363 0.194684
Ni 0.5 0.915363 0.194684
Li 0.5 0.0820299 0.194684
Ni 0.5 0.58203 0.194684
O 0.333333 0.170574 0.197704
O 0.333333 0.837241 0.197704
O 0.333333 0.503908 0.197704
O 0.5 0.244788 0.289006
O 0.5 0.911455 0.289006
O 0.5 0.578122 0.289006
Ni 0.333333 0.166666 0.292026
Li 0.333333 0.666666 0.292026
Li 0.333333 0.333333 0.292026
Ni 0.333333 0.833333 0.292026
Li 0.333333 -1.4046e-34 0.292026
Ni 0.333333 0.5 0.292026
O 0.666666 0.334634 0.00301984
O 0.666667 0.00130066 0.00301994
O 0.666666 0.667967 0.00302013
O 0.833333 0.408848 0.0943217
O 0.833333 0.0755148 0.0943219
O 0.833333 0.742182 0.094322
Ni 0.666666 0.330726 0.0973418
Li 0.666666 0.830726 0.0973418
Li 0.666666 0.497393 0.0973419
Ni 0.666666 0.997393 0.0973419
Li 0.666667 0.16406 0.097342
Ni 0.666667 0.66406 0.097342
O 0.833333 0.252604 0.100362
O 0.833333 0.919271 0.100362
O 0.833333 0.585938 0.100362
O 0.666667 0.326818 0.191664
O 0.666666 0.993485 0.191664
O 0.666666 0.660152 0.191664
Ni 0.833333 0.248696 0.194684
Li 0.833333 0.748696 0.194684
Li 0.833333 0.415363 0.194684
Ni 0.833333 0.915363 0.194684
Li 0.833333 0.0820299 0.194684
Ni 0.833333 0.58203 0.194684
O 0.666666 0.170574 0.197704
O 0.666667 0.837241 0.197704
O 0.666666 0.503908 0.197704
O 0.833333 0.244788 0.289006
O 0.833333 0.911455 0.289006
O 0.833333 0.578122 0.289006
Ni 0.666666 0.166666 0.292026
Li 0.666666 0.666666 0.292026
Li 0.666666 0.333333 0.292026
Ni 0.666666 0.833333 0.292026
Li 0.666667 -1.4046e-34 0.292026
Ni 0.666667 0.5 0.292026
C 0.593324 0.303361 0.507966
H 0.70814 0.287547 0.491724
H 0.596296 0.307362 0.559573
H 0.513182 0.256944 0.495339
C 0.39996 0.406096 0.500809
H 0.304394 0.369743 0.484309
H 0.398012 0.405049 0.553027
C 0.472595 0.542236 0.501084
H 0.590167 0.519437 0.502824
H 0.439224 0.557887 0.549787
N 0.552682 0.378486 0.481807
H 0.561865 0.380615 0.433622
N 0.377215 0.48182 0.473395
H 0.264578 0.497904 0.471129
N 0.453301 0.610759 0.46189
H 0.479591 0.597833 0.415957
C 0.539439 0.677459 0.48508
H 0.664754 0.668754 0.489181
H 0.519136 0.725639 0.45343
H 0.496124 0.692859 0.53194
